Distribution/8500Node/DSSfiles/8500Node_VLN_Node.Txt

LINE-GROUND and LINE-LINE VOLTAGES BY BUS & NODE

Bus                  Node    VLN (kV)   Angle      pu     Base kV    Node-Node   VLL (kV)  Angle      pu

8500NODE ........... 1       83.658 /_    0.0      1.05   138.000        1-2      144.9 /_   30.0      1.05
   -                 2       83.658 /_ -120.0      1.05   138.000        2-3      144.9 /_  -90.0      1.05
   -                 3       83.658 /_  120.0      1.05   138.000        3-1      144.9 /_  150.0      1.05
_HVMV_SUB_LSB ...... 1       7.5382 /_  -33.3     1.047    12.470        1-2     13.083 /_   -3.1    1.0491
   -                 2       7.5811 /_ -153.1     1.053    12.470        2-3     13.122 /_ -123.1    1.0523
   -                 3       7.5792 /_   87.0    1.0527    12.470        3-1     13.111 /_  116.8    1.0514
HVMV_SUB_48332 ..... 1       7.5382 /_  -33.3     1.047    12.470        1-2     13.083 /_   -3.1    1.0491
   -                 2       7.5811 /_ -153.1     1.053    12.470        2-3     13.122 /_ -123.1    1.0523
   -                 3       7.5792 /_   87.0    1.0527    12.470        3-1     13.111 /_  116.8    1.0514
M1009763 ........... 1       7.2037 /_  -43.9    1.0006    12.470        1-2     12.687 /_  -14.6    1.0174
   -                 2       7.3115 /_ -165.8    1.0155    12.470        2-3     12.283 /_ -132.3   0.98501
   -                 3       7.3794 /_   80.7     1.025    12.470        3-1     12.917 /_  108.0    1.0358
L2673322 ........... 2       7.3114 /_ -165.8    1.0155    12.470
M1069148 ........... 3       7.3864 /_   81.6     1.026    12.470
L2673309 ........... 3       7.3861 /_   81.6    1.0259    12.470
M1069588 ........... 2       7.3459 /_ -164.0    1.0203    12.470
L2804270 ........... 2       7.3459 /_ -164.0    1.0203    12.470
M3036164 ........... 2       7.1805 /_ -165.6   0.99735    12.470
L2935553 ........... 2        7.179 /_ -165.6   0.99714    12.470
M1209749 ........... 2       7.4287 /_ -155.3    1.0318    12.470
L2748840 ........... 2       7.4285 /_ -155.3    1.0318    12.470
M1108264 ........... 2       7.4495 /_ -159.3    1.0347    12.470
M1108263 ........... 2        7.449 /_ -159.3    1.0347    12.470
L3085398 ........... 1       7.2503 /_  -43.9    1.0071    12.470        1-2     12.761 /_  -14.6    1.0234
   -                 2       7.3551 /_ -165.7    1.0216    12.470        2-3     12.336 /_ -132.4   0.98923
   -                 3       7.3907 /_   80.7    1.0265    12.470        3-1     12.967 /_  108.1    1.0398
M1026891 ........... 1        7.247 /_  -43.9    1.0066    12.470        1-2     12.754 /_  -14.6    1.0228
   -                 2       7.3489 /_ -165.7    1.0207    12.470        2-3     12.329 /_ -132.4   0.98868
   -                 3       7.3895 /_   80.7    1.0264    12.470        3-1     12.962 /_  108.1    1.0395
L3216367 ........... 1       7.3207 /_  -43.4    1.0168    12.470        1-2     12.796 /_  -14.4    1.0262
   -                 2       7.3179 /_ -165.3    1.0164    12.470        2-3     12.302 /_ -132.4   0.98653
   -                 3       7.3277 /_   80.4    1.0178    12.470        3-1     12.924 /_  108.5    1.0364
M1069468 ........... 1       7.3201 /_  -43.4    1.0167    12.470        1-2     12.794 /_  -14.4     1.026
   -                 2       7.3156 /_ -165.3    1.0161    12.470        2-3     12.299 /_ -132.4   0.98632
   -                 3        7.327 /_   80.4    1.0177    12.470        3-1     12.922 /_  108.5    1.0362
M1142800 ........... 2       7.2614 /_ -157.8    1.0086    12.470
M1142799 ........... 2       7.2612 /_ -157.8    1.0086    12.470
M1047592 ........... 1       7.3693 /_  -43.6    1.0236    12.470        1-2     12.926 /_  -14.2    1.0365
   -                 2       7.4345 /_ -165.2    1.0326    12.470        2-3      12.46 /_ -132.2   0.99919
   -                 3       7.4238 /_   80.8    1.0312    12.470        3-1     13.084 /_  108.5    1.0492
P827512 ............ 3       7.4238 /_   80.8    1.0311    12.470
M1047339 ........... 1       7.2452 /_  -39.7    1.0063    12.470        1-2     12.596 /_  -10.1    1.0101
   -                 2       7.2489 /_ -160.4    1.0069    12.470        2-3     12.584 /_ -129.4    1.0092
   -                 3       7.3897 /_   81.0    1.0264    12.470        3-1     12.722 /_  110.3    1.0202
P895104 ............ 1       7.2452 /_  -39.7    1.0063    12.470
M1026915 ........... 1       7.2487 /_  -43.9    1.0068    12.470        1-2     12.761 /_  -14.6    1.0234
   -                 2       7.3574 /_ -165.7    1.0219    12.470        2-3     12.337 /_ -132.4   0.98933
   -                 3       7.3897 /_   80.7    1.0264    12.470        3-1     12.964 /_  108.1    1.0397
M1026920 ........... 1       7.2467 /_  -43.9    1.0065    12.470        1-2     12.759 /_  -14.6    1.0232
   -                 2       7.3564 /_ -165.7    1.0218    12.470        2-3     12.335 /_ -132.4   0.98919
   -                 3       7.3887 /_   80.7    1.0263    12.470        3-1     12.962 /_  108.1    1.0394
N1138596 ........... 1        7.302 /_  -43.4    1.0142    12.470
L3254207 ........... 1       7.3015 /_  -43.4    1.0142    12.470
M1069464 ........... 1        7.319 /_  -43.4    1.0166    12.470        1-2     12.791 /_  -14.4    1.0258
   -                 2       7.3117 /_ -165.3    1.0156    12.470        2-3     12.295 /_ -132.4   0.98597
   -                 3       7.3256 /_   80.4    1.0175    12.470        3-1     12.919 /_  108.5     1.036
P873787 ............ 2       7.3116 /_ -165.3    1.0156    12.470
N1144665 ........... 1       7.3946 /_  -43.4    1.0271    12.470        1-2     12.956 /_  -14.1     1.039
   -                 2       7.4476 /_ -165.0    1.0344    12.470        2-3     12.477 /_ -132.1    1.0005
   -                 3        7.416 /_   80.9    1.0301    12.470        3-1     13.092 /_  108.7    1.0499
M1047515 ........... 1       7.3893 /_  -43.4    1.0264    12.470        1-2     12.948 /_  -14.1    1.0383
   -                 2       7.4437 /_ -165.0    1.0339    12.470        2-3     12.469 /_ -132.1   0.99995
   -                 3       7.4113 /_   80.9    1.0294    12.470        3-1     13.083 /_  108.7    1.0492
N1137002 ........... 1       7.3604 /_  -43.3    1.0223    12.470
M1047707 ........... 1       7.3601 /_  -43.3    1.0223    12.470
L2729406 ........... 3       7.2782 /_   82.4    1.0109    12.470
L2897768 ........... 3       7.2776 /_   82.4    1.0108    12.470
L3649301 ........... 1       7.3378 /_  -43.7    1.0192    12.470
L3649302 ........... 1       7.3374 /_  -43.7    1.0191    12.470
L2970842 ........... 2       7.4717 /_ -159.2    1.0378    12.470
M1089113 ........... 2       7.4703 /_ -159.2    1.0376    12.470
M1047312 ........... 1       7.2111 /_  -39.7    1.0016    12.470        1-2     12.539 /_  -10.1    1.0056
   -                 2        7.213 /_ -160.5    1.0019    12.470        2-3     12.541 /_ -129.3    1.0057
   -                 3       7.3804 /_   81.0    1.0251    12.470        3-1     12.685 /_  110.3    1.0172
P893163 ............ 1       7.2111 /_  -39.7    1.0016    12.470
L2822871 ........... 1       7.2827 /_  -43.9    1.0115    12.470        1-2     12.813 /_  -14.5    1.0275
   -                 2       7.3919 /_ -165.5    1.0267    12.470        2-3     12.383 /_ -132.4   0.99304
   -                 3       7.4002 /_   80.8    1.0279    12.470        3-1     13.004 /_  108.2    1.0428
M1026872 ........... 1         7.28 /_  -43.9    1.0112    12.470        1-2     12.809 /_  -14.5    1.0272
   -                 2       7.3892 /_ -165.5    1.0263    12.470        2-3     12.379 /_ -132.4   0.99274
   -                 3       7.3993 /_   80.8    1.0277    12.470        3-1     13.001 /_  108.2    1.0426
M1026312 ........... 2       7.0607 /_ -160.8   0.98072    12.470
L2973163 ........... 2        7.058 /_ -160.8   0.98034    12.470
L3728038 ........... 1       7.3269 /_  -43.5    1.0177    12.470
L3728039 ........... 1       7.3264 /_  -43.5    1.0176    12.470
M1069567 ........... 2       7.3586 /_ -164.0    1.0221    12.470
M1069582 ........... 2       7.3497 /_ -164.0    1.0209    12.470
N1140830 ........... 1       7.1909 /_  -43.7    0.9988    12.470
L3216351 ........... 1       7.1908 /_  -43.7   0.99878    12.470
L2952007 ........... 3       7.3987 /_   85.8    1.0277    12.470
L2861158 ........... 3       7.3983 /_   85.8    1.0276    12.470
N1140827 ........... 1       7.1962 /_  -43.7   0.99953    12.470        1-2     12.722 /_  -13.9    1.0202
   -                 2       7.4027 /_ -164.9    1.0282    12.470        2-3     12.324 /_ -132.3   0.98828
   -                 3       7.2819 /_   81.0    1.0114    12.470        3-1     12.821 /_  108.5    1.0282
M1026726 ........... 1       7.1961 /_  -43.7   0.99952    12.470        1-2     12.722 /_  -13.9    1.0202
   -                 2       7.4026 /_ -164.9    1.0282    12.470        2-3     12.324 /_ -132.3   0.98826
   -                 3       7.2819 /_   81.0    1.0114    12.470        3-1     12.821 /_  108.5    1.0282
L2730106 ........... 1       6.8043 /_  -40.0    0.9451    12.470        1-2     12.114 /_   -9.6   0.97145
   -                 2       7.1216 /_ -160.8   0.98917    12.470        2-3     12.411 /_ -128.2   0.99523
   -                 3       7.4702 /_   82.7    1.0376    12.470        3-1     12.525 /_  109.9    1.0044
N1142099 ........... 1       6.8016 /_  -40.0   0.94473    12.470        1-2     12.111 /_   -9.7    0.9712
   -                 2       7.1204 /_ -160.9   0.98901    12.470        2-3     12.408 /_ -128.3   0.99505
   -                 3       7.4701 /_   82.6    1.0376    12.470        3-1     12.524 /_  109.9    1.0043
M1026658 ........... 1       7.1892 /_  -43.7   0.99855    12.470        1-2     12.713 /_  -13.8    1.0195
   -                 2       7.4043 /_ -164.9    1.0284    12.470        2-3     12.316 /_ -132.3   0.98764
   -                 3       7.2675 /_   80.9    1.0094    12.470        3-1     12.804 /_  108.4    1.0267
L3172805 ........... 1        7.189 /_  -43.7   0.99853    12.470
P895112 ............ 1       7.1045 /_  -37.7   0.98679    12.470
L3048962 ........... 1       7.1044 /_  -37.7   0.98678    12.470
L2991914 ........... 1        7.342 /_  -43.4    1.0198    12.470        1-2      12.88 /_  -14.0    1.0329
   -                 2       7.4169 /_ -165.0    1.0302    12.470        2-3     12.415 /_ -132.2   0.99555
   -                 3       7.3727 /_   80.9     1.024    12.470        3-1      13.01 /_  108.7    1.0433
M1047503 ........... 1       7.3383 /_  -43.4    1.0193    12.470        1-2     12.876 /_  -14.0    1.0326
   -                 2       7.4166 /_ -165.0    1.0301    12.470        2-3     12.412 /_ -132.2   0.99537
   -                 3       7.3703 /_   80.9    1.0237    12.470        3-1     13.005 /_  108.6    1.0429
M1047751 ........... 1       7.3171 /_  -43.1    1.0163    12.470
L2973154 ........... 1       7.3171 /_  -43.1    1.0163    12.470
L3010565 ........... 3       7.3832 /_   81.6    1.0255    12.470
L2897775 ........... 3        7.383 /_   81.6    1.0255    12.470
M1125955 ........... 3       7.4735 /_   83.2     1.038    12.470
M1125957 ........... 3       7.4735 /_   83.2     1.038    12.470
M1069640 ........... 2       7.3227 /_ -164.1    1.0171    12.470
L2804269 ........... 2        7.322 /_ -164.1     1.017    12.470
M1026702 ........... 1       7.2201 /_  -43.6    1.0028    12.470        1-2     12.749 /_  -13.9    1.0224
   -                 2       7.4065 /_ -164.9    1.0287    12.470        2-3     12.342 /_ -132.3   0.98977
   -                 3       7.3007 /_   80.9    1.0141    12.470        3-1     12.856 /_  108.5     1.031
N1139551 ........... 1       7.2087 /_  -43.7    1.0013    12.470        1-2     12.737 /_  -13.9    1.0214
   -                 2       7.4059 /_ -164.9    1.0287    12.470        2-3     12.336 /_ -132.3   0.98927
   -                 3       7.2943 /_   81.0    1.0132    12.470        3-1     12.842 /_  108.5    1.0298
N1136355 ........... 2       7.3987 /_ -163.9    1.0277    12.470
L2783231 ........... 2       7.3915 /_ -163.9    1.0267    12.470
L2748143 ........... 1       7.1972 /_  -42.1   0.99968    12.470
L3251854 ........... 1       7.1971 /_  -42.1   0.99966    12.470
M1069610 ........... 2       7.3336 /_ -164.0    1.0186    12.470
M1069600 ........... 2       7.3334 /_ -164.0    1.0186    12.470
M1069424 ........... 1        7.311 /_  -43.4    1.0155    12.470        1-2     12.766 /_  -14.5    1.0237
   -                 2       7.2813 /_ -165.4    1.0114    12.470        2-3     12.261 /_ -132.5   0.98325
   -                 3       7.3152 /_   80.3    1.0161    12.470        3-1     12.894 /_  108.4     1.034
L2935549 ........... 1       7.3099 /_  -43.4    1.0153    12.470        1-2     12.763 /_  -14.5    1.0235
   -                 2       7.2771 /_ -165.5    1.0108    12.470        2-3     12.257 /_ -132.5   0.98288
   -                 3        7.314 /_   80.3    1.0159    12.470        3-1     12.891 /_  108.4    1.0338
P895089 ............ 3       7.5182 /_   81.7    1.0443    12.470
L3235242 ........... 3        7.518 /_   81.7    1.0442    12.470
M1026795 ........... 1       7.3028 /_  -43.5    1.0143    12.470        1-2     12.838 /_  -14.0    1.0295
   -                 2        7.414 /_ -165.0    1.0298    12.470        2-3     12.391 /_ -132.2   0.99366
   -                 3       7.3482 /_   80.9    1.0206    12.470        3-1      12.96 /_  108.6    1.0393
N1140522 ........... 3       7.3482 /_   80.9    1.0206    12.470
L3030199 ........... 1       7.1498 /_  -37.6   0.99309    12.470        1-2     12.496 /_   -7.5    1.0021
   -                 2       7.2629 /_ -157.8    1.0088    12.470        2-3      12.68 /_ -126.9    1.0168
   -                 3       7.4584 /_   83.2     1.036    12.470        3-1     12.706 /_  112.1    1.0189
M1125934 ........... 1       7.1498 /_  -37.6   0.99309    12.470        1-2     12.495 /_   -7.5     1.002
   -                 2        7.262 /_ -157.9    1.0087    12.470        2-3     12.679 /_ -126.9    1.0167
   -                 3       7.4577 /_   83.2    1.0359    12.470        3-1     12.705 /_  112.1    1.0188
M1069189 ........... 1       7.4025 /_  -39.1    1.0282    12.470        1-2      12.86 /_   -9.2    1.0312
   -                 2       7.4216 /_ -159.5    1.0308    12.470        2-3     12.772 /_ -129.0    1.0242
   -                 3        7.402 /_   81.6    1.0281    12.470        3-1     12.864 /_  111.2    1.0316
L2860487 ........... 3       7.4018 /_   81.6    1.0281    12.470
221-312488 ......... 1       6.8416 /_  -39.4   0.95028    12.470        1-2     12.143 /_   -9.2   0.97376
   -                 2       7.1194 /_ -160.3   0.98887    12.470        2-3     12.426 /_ -127.9   0.99646
   -                 3       7.4625 /_   82.9    1.0365    12.470        3-1     12.531 /_  110.4    1.0049
M1089183 ........... 1       6.8416 /_  -39.4   0.95028    12.470        1-2     12.143 /_   -9.2   0.97376
   -                 2       7.1194 /_ -160.3   0.98886    12.470        2-3     12.426 /_ -127.9   0.99646
   -                 3       7.4625 /_   82.9    1.0365    12.470        3-1     12.531 /_  110.4    1.0049
M1108464 ........... 2        7.117 /_ -160.3   0.98853    12.470
L3102286 ........... 2       7.1165 /_ -160.3   0.98846    12.470
F739845 ............ 1       7.1941 /_  -39.7   0.99924    12.470        1-2     12.505 /_  -10.1    1.0028
   -                 2       7.1865 /_ -160.5   0.99818    12.470        2-3     12.511 /_ -129.3    1.0033
   -                 3       7.3749 /_   81.0    1.0244    12.470        3-1     12.664 /_  110.3    1.0156
293471 ............. 1        7.194 /_  -39.7   0.99923    12.470        1-2     12.505 /_  -10.1    1.0028
   -                 2       7.1864 /_ -160.5   0.99817    12.470        2-3      12.51 /_ -129.3    1.0032
   -                 3       7.3748 /_   81.0    1.0243    12.470        3-1     12.664 /_  110.3    1.0156
P827499 ............ 1       7.3087 /_  -43.4    1.0152    12.470
N1139254 ........... 1       7.3087 /_  -43.4    1.0152    12.470
M1026657 ........... 1       7.1856 /_  -43.7   0.99807    12.470
M1026656 ........... 1       7.1854 /_  -43.7   0.99803    12.470
M1108299 ........... 2       7.2318 /_ -158.2    1.0045    12.470
M1108300 ........... 2       7.2318 /_ -158.2    1.0045    12.470
L3198355 ........... 2       7.2314 /_ -158.2    1.0044    12.470
L2805037 ........... 2       7.2314 /_ -158.2    1.0044    12.470
N1137994 ........... 3       7.3327 /_   80.5    1.0185    12.470
M1069484 ........... 3       7.3313 /_   80.5    1.0183    12.470
L2860504 ........... 1       7.1919 /_  -43.7   0.99894    12.470
L2860493 ........... 1       7.1912 /_  -43.7   0.99884    12.470
M1026783 ........... 1       7.2918 /_  -43.5    1.0128    12.470        1-2     12.826 /_  -14.0    1.0286
   -                 2       7.4131 /_ -165.0    1.0297    12.470        2-3     12.385 /_ -132.2   0.99316
   -                 3       7.3422 /_   80.9    1.0198    12.470        3-1     12.946 /_  108.6    1.0382
M1026780 ........... 1       7.2901 /_  -43.5    1.0126    12.470        1-2     12.824 /_  -14.0    1.0284
   -                 2       7.4129 /_ -165.0    1.0296    12.470        2-3     12.384 /_ -132.2   0.99308
   -                 3       7.3412 /_   80.9    1.0197    12.470        3-1     12.944 /_  108.6     1.038
P895111 ............ 3       7.4773 /_   83.5    1.0386    12.470
L2895496 ........... 3       7.4769 /_   83.5    1.0385    12.470
N1140819 ........... 1       7.2006 /_  -43.7    1.0001    12.470        1-2     12.727 /_  -13.9    1.0206
   -                 2       7.4038 /_ -164.9    1.0284    12.470        2-3     12.328 /_ -132.3   0.98863
   -                 3       7.2864 /_   81.0    1.0121    12.470        3-1     12.829 /_  108.5    1.0288
M1026700 ........... 1       7.1994 /_  -43.7   0.99998    12.470        1-2     12.726 /_  -13.9    1.0205
   -                 2       7.4034 /_ -164.9    1.0283    12.470        2-3     12.327 /_ -132.3   0.98852
   -                 3       7.2852 /_   81.0    1.0119    12.470        3-1     12.827 /_  108.5    1.0286
M1089173 ........... 3       7.2809 /_   82.4    1.0113    12.470
L2935551 ........... 3         7.28 /_   82.4    1.0112    12.470
M1026344 ........... 1       7.1481 /_  -39.7   0.99285    12.470
M1026364 ........... 1       7.1478 /_  -39.7   0.99281    12.470
L2879070 ........... 1       7.3573 /_  -43.6    1.0219    12.470        1-2     12.911 /_  -14.3    1.0354
   -                 2       7.4304 /_ -165.2    1.0321    12.470        2-3     12.451 /_ -132.2   0.99846
   -                 3       7.4202 /_   80.8    1.0306    12.470        3-1     13.073 /_  108.5    1.0484
L3216345 ........... 1       7.3492 /_  -43.6    1.0208    12.470        1-2     12.901 /_  -14.3    1.0346
   -                 2       7.4278 /_ -165.3    1.0317    12.470        2-3     12.445 /_ -132.3   0.99799
   -                 3       7.4182 /_   80.8    1.0304    12.470        3-1     13.066 /_  108.4    1.0478
M1069428 ........... 1       7.3121 /_  -43.4    1.0156    12.470        1-2     12.769 /_  -14.5     1.024
   -                 2       7.2848 /_ -165.4    1.0118    12.470        2-3     12.265 /_ -132.5   0.98356
   -                 3       7.3163 /_   80.3    1.0162    12.470        3-1     12.897 /_  108.4    1.0342
N1139257 ........... 2       7.2848 /_ -165.4    1.0118    12.470
L2991919 ........... 1        7.144 /_  -39.7   0.99228    12.470
M1026361 ........... 1       7.1415 /_  -39.7   0.99193    12.470
N1147857 ........... 1       7.2037 /_  -43.9    1.0006    12.470
M1009742 ........... 1       7.2019 /_  -43.9    1.0003    12.470
Q14412 ............. 1        7.236 /_  -39.7    1.0051    12.470        1-2     12.581 /_  -10.1    1.0089
   -                 2       7.2395 /_ -160.4    1.0055    12.470        2-3     12.573 /_ -129.4    1.0082
   -                 3       7.3874 /_   81.0    1.0261    12.470        3-1     12.712 /_  110.3    1.0194
M1047325 ........... 1       7.2334 /_  -39.7    1.0047    12.470        1-2     12.577 /_  -10.1    1.0086
   -                 2       7.2369 /_ -160.4    1.0052    12.470        2-3      12.57 /_ -129.4     1.008
   -                 3       7.3867 /_   81.0     1.026    12.470        3-1     12.709 /_  110.3    1.0192
N1139263 ........... 1         7.32 /_  -43.4    1.0167    12.470
L3048227 ........... 1       7.3199 /_  -43.4    1.0167    12.470
P827506 ............ 1         7.32 /_  -43.4    1.0167    12.470
M1069469 ........... 1         7.32 /_  -43.4    1.0167    12.470
M1027019 ........... 2       7.3201 /_ -165.8    1.0167    12.470
L2785522 ........... 2         7.32 /_ -165.8    1.0167    12.470
L3216338 ........... 2       7.2609 /_ -165.9    1.0085    12.470
L2973146 ........... 2       7.2608 /_ -165.9    1.0085    12.470
M3037452 ........... 1        7.134 /_  -39.7   0.99089    12.470
L2973164 ........... 1       7.1339 /_  -39.7   0.99088    12.470
L3120376 ........... 1       7.2943 /_  -43.8    1.0132    12.470
M1026925 ........... 1       7.2926 /_  -43.8    1.0129    12.470
M1047612 ........... 3       7.4316 /_   80.8    1.0322    12.470
P828360 ............ 3       7.4316 /_   80.8    1.0322    12.470
M1089195 ........... 3       7.5178 /_   81.7    1.0442    12.470
L3141393 ........... 3       7.5176 /_   81.7    1.0442    12.470
M1026946 ........... 2       7.3363 /_ -165.8     1.019    12.470
M1026940 ........... 2       7.3358 /_ -165.8    1.0189    12.470
M1047471 ........... 2       7.1405 /_ -165.8   0.99179    12.470
L3216349 ........... 2       7.1404 /_ -165.8   0.99179    12.470
M1047401 ........... 1       7.1355 /_  -43.8    0.9911    12.470
L2748132 ........... 1       7.1354 /_  -43.8   0.99109    12.470
L3122820 ........... 1       7.1649 /_  -43.8   0.99519    12.470
L3141398 ........... 1       7.1648 /_  -43.8   0.99518    12.470
M1108360 ........... 3       7.3542 /_   82.6    1.0215    12.470
L3048968 ........... 3       7.3539 /_   82.6    1.0214    12.470
L2801950 ........... 3       7.3636 /_   81.5    1.0228    12.470
M1069224 ........... 3       7.3629 /_   81.5    1.0227    12.470
L2766746 ........... 3        7.312 /_   80.6    1.0156    12.470
M1027073 ........... 3       7.3099 /_   80.6    1.0153    12.470
M1142873 ........... 3       7.4767 /_   83.5    1.0385    12.470
M1069181 ........... 1       7.3616 /_  -39.3    1.0225    12.470
L2973151 ........... 1         7.36 /_  -39.3    1.0223    12.470
L3179682 ........... 3       7.4359 /_   82.7    1.0328    12.470
L2786274 ........... 3       7.4359 /_   82.7    1.0328    12.470
L3066816 ........... 1       7.1899 /_  -43.7   0.99866    12.470
M1026667 ........... 1       7.1895 /_  -43.7    0.9986    12.470
M1108529 ........... 1       7.3932 /_  -40.7    1.0269    12.470        1-2     12.984 /_  -10.9    1.0412
   -                 2       7.5223 /_ -161.7    1.0448    12.470        2-3      12.75 /_ -129.7    1.0224
   -                 3        7.515 /_   82.3    1.0438    12.470        3-1     13.102 /_  110.6    1.0507
M1108532 ........... 1       7.3908 /_  -40.7    1.0266    12.470        1-2     12.981 /_  -10.9     1.041
   -                 2       7.5208 /_ -161.7    1.0446    12.470        2-3     12.748 /_ -129.7    1.0223
   -                 3       7.5151 /_   82.3    1.0438    12.470        3-1       13.1 /_  110.6    1.0506
L2766723 ........... 1        7.191 /_  -43.7   0.99881    12.470
L3122822 ........... 1       7.1909 /_  -43.7   0.99879    12.470
L2673312 ........... 1       7.1918 /_  -44.0   0.99892    12.470
L3235247 ........... 1       7.1916 /_  -44.0   0.99889    12.470
M1166391 ........... 3       7.4134 /_   85.9    1.0297    12.470
L3254873 ........... 3       7.4094 /_   85.8    1.0291    12.470
L2861157 ........... 3       7.4525 /_   85.9    1.0351    12.470
P901951 ............ 3       7.4488 /_   85.9    1.0346    12.470
M1047346 ........... 1       7.2595 /_  -39.7    1.0083    12.470        1-2     12.619 /_  -10.1    1.0119
   -                 2       7.2619 /_ -160.4    1.0087    12.470        2-3       12.6 /_ -129.4    1.0104
   -                 3        7.393 /_   81.0    1.0269    12.470        3-1     12.736 /_  110.3    1.0214
M1047345 ........... 1       7.2557 /_  -39.7    1.0078    12.470        1-2     12.613 /_  -10.1    1.0115
   -                 2       7.2587 /_ -160.4    1.0082    12.470        2-3     12.596 /_ -129.4    1.0101
   -                 3       7.3922 /_   81.0    1.0268    12.470        3-1     12.733 /_  110.3    1.0211
L2989596 ........... 2       7.3678 /_ -164.0    1.0234    12.470
L2822873 ........... 2       7.3678 /_ -164.0    1.0234    12.470
M1108328 ........... 3       7.4124 /_   82.7    1.0296    12.470
L2875754 ........... 3       7.4123 /_   82.7    1.0295    12.470
L2786204 ........... 3       7.5145 /_   86.1    1.0437    12.470
M1209819 ........... 3       7.5102 /_   86.1    1.0432    12.470
P901972 ............ 1       7.2016 /_  -43.9    1.0003    12.470
M1009726 ........... 1       7.1988 /_  -43.9    0.9999    12.470
M1047702 ........... 1       7.3605 /_  -43.3    1.0224    12.470
N1137001 ........... 1       7.3604 /_  -43.3    1.0223    12.470
L2767340 ........... 1       6.9009 /_  -39.2   0.95851    12.470        1-2     12.226 /_   -8.9   0.98043
   -                 2       7.1638 /_ -159.9   0.99503    12.470        2-3      12.49 /_ -127.7    1.0016
   -                 3        7.472 /_   83.0    1.0378    12.470        3-1     12.581 /_  110.6    1.0089
M3037449 ........... 1       6.9009 /_  -39.2   0.95851    12.470        1-2     12.226 /_   -8.9   0.98043
   -                 2       7.1638 /_ -159.9   0.99503    12.470        2-3      12.49 /_ -127.7    1.0016
   -                 3        7.472 /_   83.0    1.0378    12.470        3-1     12.581 /_  110.6    1.0089
M1047457 ........... 2       7.1483 /_ -165.8   0.99289    12.470
L2710546 ........... 2       7.1474 /_ -165.8   0.99276    12.470
L2674027 ........... 1       6.7389 /_  -40.5   0.93601    12.470        1-2     12.037 /_  -10.2   0.96527
   -                 2       7.0902 /_ -161.5   0.98481    12.470        2-3     12.354 /_ -128.6   0.99069
   -                 3        7.469 /_   82.4    1.0374    12.470        3-1     12.487 /_  109.4    1.0014
L2692633 ........... 1       6.7316 /_  -40.6     0.935    12.470        1-2     12.028 /_  -10.2   0.96457
   -                 2       7.0863 /_ -161.6   0.98427    12.470        2-3     12.347 /_ -128.6   0.99016
   -                 3       7.4689 /_   82.4    1.0374    12.470        3-1     12.482 /_  109.3     1.001
N1142108 ........... 1       7.1505 /_  -37.8   0.99319    12.470
L2674051 ........... 1       7.1505 /_  -37.8   0.99318    12.470
M1069135 ........... 1       7.2842 /_  -39.7    1.0118    12.470        1-2     12.657 /_  -10.0     1.015
   -                 2        7.283 /_ -160.3    1.0116    12.470        2-3     12.627 /_ -129.4    1.0126
   -                 3       7.3998 /_   81.0    1.0278    12.470        3-1     12.762 /_  110.4    1.0234
R18242 ............. 1       7.2791 /_  -39.7    1.0111    12.470        1-2     12.649 /_  -10.0    1.0144
   -                 2        7.279 /_ -160.4     1.011    12.470        2-3     12.623 /_ -129.4    1.0122
   -                 3       7.3992 /_   81.0    1.0277    12.470        3-1     12.758 /_  110.4    1.0231
M1047534 ........... 1       7.4779 /_  -43.2    1.0387    12.470        1-2     13.084 /_  -13.9    1.0492
   -                 2       7.5101 /_ -164.8    1.0431    12.470        2-3     12.583 /_ -132.0     1.009
   -                 3       7.4732 /_   81.0     1.038    12.470        3-1     13.211 /_  108.9    1.0594
N1136663 ........... 1       7.4563 /_  -43.3    1.0357    12.470        1-2     13.051 /_  -14.0    1.0466
   -                 2       7.4937 /_ -164.9    1.0409    12.470        2-3     12.556 /_ -132.1    1.0069
   -                 3       7.4614 /_   80.9    1.0364    12.470        3-1     13.183 /_  108.8    1.0572
M1108508 ........... 3       7.5154 /_   82.1    1.0439    12.470
L3097861 ........... 3       7.5154 /_   82.1    1.0439    12.470
M1069560 ........... 2       7.3638 /_ -164.0    1.0228    12.470
L2973153 ........... 1       7.3713 /_  -43.4    1.0239    12.470        1-2     12.896 /_  -14.3    1.0342
   -                 2       7.3839 /_ -165.2    1.0256    12.470        2-3     12.424 /_ -132.1   0.99631
   -                 3       7.4337 /_   80.8    1.0325    12.470        3-1     13.084 /_  108.6    1.0492
N1136998 ........... 1       7.3707 /_  -43.4    1.0238    12.470        1-2     12.895 /_  -14.3    1.0341
   -                 2       7.3826 /_ -165.2    1.0254    12.470        2-3     12.423 /_ -132.1   0.99622
   -                 3       7.4339 /_   80.8    1.0325    12.470        3-1     13.083 /_  108.6    1.0492
L2898515 ........... 3       7.5044 /_   84.7    1.0423    12.470
M1166387 ........... 3       7.5042 /_   84.7    1.0423    12.470
M1047442 ........... 2       7.1784 /_ -165.7   0.99706    12.470
L3235250 ........... 2       7.1783 /_ -165.7   0.99705    12.470
M1142871 ........... 1       7.0744 /_  -37.9   0.98262    12.470        1-2     12.432 /_   -7.7   0.99691
   -                 2       7.2523 /_ -158.3    1.0073    12.470        2-3     12.643 /_ -126.9    1.0138
   -                 3       7.4776 /_   83.5    1.0386    12.470        3-1      12.69 /_  111.9    1.0177
M1142874 ........... 1       7.0691 /_  -37.9   0.98188    12.470        1-2     12.425 /_   -7.7    0.9964
   -                 2       7.2494 /_ -158.3    1.0069    12.470        2-3     12.638 /_ -126.9    1.0135
   -                 3       7.4773 /_   83.5    1.0386    12.470        3-1     12.687 /_  111.9    1.0174
L2955081 ........... 1        7.151 /_  -37.9   0.99326    12.470        1-2     12.474 /_   -7.8    1.0003
   -                 2       7.2388 /_ -158.1    1.0055    12.470        2-3     12.657 /_ -127.2     1.015
   -                 3       7.4385 /_   82.8    1.0332    12.470        3-1     12.677 /_  111.8    1.0166
M1108315 ........... 1       7.1513 /_  -37.9    0.9933    12.470        1-2     12.472 /_   -7.8    1.0001
   -                 2       7.2362 /_ -158.1    1.0051    12.470        2-3     12.654 /_ -127.2    1.0148
   -                 3       7.4362 /_   82.7    1.0329    12.470        3-1     12.674 /_  111.8    1.0164
L2973162 ........... 1       7.1481 /_  -39.6   0.99286    12.470        1-2     12.418 /_  -10.2    0.9958
   -                 2       7.1181 /_ -160.7   0.98869    12.470        2-3     12.447 /_ -129.2   0.99813
   -                 3        7.382 /_   81.1    1.0253    12.470        3-1      12.63 /_  110.2    1.0128
M1026333 ........... 1       7.1475 /_  -39.6   0.99277    12.470        1-2     12.415 /_  -10.2   0.99557
   -                 2       7.1144 /_ -160.7   0.98817    12.470        2-3     12.444 /_ -129.2    0.9979
   -                 3       7.3829 /_   81.1    1.0255    12.470        3-1      12.63 /_  110.2    1.0128
M1009832 ........... 2       7.2693 /_ -165.9    1.0097    12.470
L2860479 ........... 2       7.2692 /_ -165.9    1.0097    12.470
M1026854 ........... 1       7.3094 /_  -43.8    1.0153    12.470        1-2     12.851 /_  -14.4    1.0306
   -                 2       7.4119 /_ -165.4    1.0295    12.470        2-3     12.413 /_ -132.3   0.99544
   -                 3       7.4079 /_   80.8    1.0289    12.470        3-1     13.032 /_  108.3     1.045
P901894 ............ 1       7.3092 /_  -43.8    1.0152    12.470
M1026485 ........... 2       7.2179 /_ -160.5    1.0025    12.470
M1026492 ........... 2       7.2177 /_ -160.5    1.0025    12.470
D6413567-3_INT ..... 1       7.3836 /_  -39.2    1.0256    12.470        1-2     12.831 /_   -9.3     1.029
   -                 2       7.4056 /_ -159.6    1.0286    12.470        2-3     12.754 /_ -129.0    1.0227
   -                 3       7.4003 /_   81.5    1.0279    12.470        3-1     12.848 /_  111.1    1.0303
E182724 ............ 1       7.3835 /_  -39.2    1.0256    12.470        1-2     12.831 /_   -9.3     1.029
   -                 2       7.4056 /_ -159.6    1.0286    12.470        2-3     12.754 /_ -129.0    1.0227
   -                 3       7.4003 /_   81.5    1.0279    12.470        3-1     12.848 /_  111.1    1.0303
N1139541 ........... 1       7.3855 /_  -39.2    1.0258    12.470        1-2     12.834 /_   -9.3    1.0292
   -                 2       7.4073 /_ -159.5    1.0288    12.470        2-3     12.755 /_ -129.0    1.0229
   -                 3       7.4005 /_   81.5    1.0279    12.470        3-1     12.849 /_  111.1    1.0304
M4122658 ........... 1       6.8256 /_  -39.8   0.94806    12.470        1-2     12.139 /_   -9.5   0.97346
   -                 2       7.1312 /_ -160.6   0.99051    12.470        2-3     12.428 /_ -128.1   0.99667
   -                 3        7.471 /_   82.7    1.0377    12.470        3-1     12.538 /_  110.1    1.0055
L2933135 ........... 1       6.8254 /_  -39.8   0.94803    12.470        1-2     12.139 /_   -9.5   0.97345
   -                 2       7.1311 /_ -160.6    0.9905    12.470        2-3     12.428 /_ -128.1   0.99666
   -                 3       7.4709 /_   82.7    1.0377    12.470        3-1     12.538 /_  110.1    1.0055
L2729414 ........... 1         7.22 /_  -43.6    1.0028    12.470        1-2     12.749 /_  -13.9    1.0224
   -                 2       7.4064 /_ -164.9    1.0287    12.470        2-3     12.342 /_ -132.3   0.98976
   -                 3       7.3007 /_   80.9     1.014    12.470        3-1     12.856 /_  108.5     1.031
L2729430 ........... 2       7.3062 /_ -165.8    1.0148    12.470
L2766742 ........... 2       7.2993 /_ -165.8    1.0138    12.470
M1026972 ........... 2       7.1824 /_ -165.6   0.99762    12.470
L2860483 ........... 2       7.1822 /_ -165.6   0.99759    12.470
L2860490 ........... 1       7.2691 /_  -39.7    1.0097    12.470        1-2     12.634 /_  -10.1    1.0131
   -                 2       7.2705 /_ -160.4    1.0098    12.470        2-3     12.611 /_ -129.4    1.0113
   -                 3        7.396 /_   81.0    1.0273    12.470        3-1     12.747 /_  110.4    1.0222
L3104134 ........... 1       7.2635 /_  -39.7    1.0089    12.470        1-2     12.625 /_  -10.1    1.0124
   -                 2       7.2655 /_ -160.4    1.0092    12.470        2-3     12.605 /_ -129.4    1.0108
   -                 3       7.3942 /_   81.0     1.027    12.470        3-1     12.741 /_  110.4    1.0217
M1089144 ........... 1       7.0119 /_  -38.5   0.97393    12.470
P827522 ............ 1       7.0118 /_  -38.5   0.97393    12.470
M1089118 ........... 1       7.4437 /_  -38.9    1.0339    12.470        1-2     12.931 /_   -9.0    1.0369
   -                 2       7.4641 /_ -159.2    1.0368    12.470        2-3     12.835 /_ -128.8    1.0293
   -                 3       7.4308 /_   81.7    1.0321    12.470        3-1     12.925 /_  111.4    1.0365
L3048208 ........... 1       7.4436 /_  -38.9    1.0339    12.470
M1108505 ........... 1       6.7584 /_  -40.3   0.93872    12.470        1-2      12.06 /_  -10.0   0.96713
   -                 2       7.1006 /_ -161.3   0.98626    12.470        2-3     12.372 /_ -128.5   0.99211
   -                 3       7.4691 /_   82.5    1.0374    12.470        3-1     12.499 /_  109.5    1.0023
L2955047 ........... 1       6.7524 /_  -40.4   0.93789    12.470        1-2     12.053 /_  -10.1   0.96656
   -                 2       7.0974 /_ -161.3   0.98582    12.470        2-3     12.366 /_ -128.5   0.99168
   -                 3       7.4691 /_   82.5    1.0374    12.470        3-1     12.495 /_  109.5     1.002
M1089148 ........... 1       7.0089 /_  -38.5   0.97352    12.470
L2766721 ........... 1       7.0088 /_  -38.5    0.9735    12.470
M1026745 ........... 2       7.1368 /_ -165.8   0.99128    12.470
L3029183 ........... 2       7.1367 /_ -165.8   0.99126    12.470
L2710512 ........... 2       7.1537 /_ -165.7   0.99363    12.470
M1047828 ........... 2       7.1493 /_ -165.7   0.99302    12.470
M1047342 ........... 1       7.2551 /_  -39.7    1.0077    12.470
L3197645 ........... 1        7.255 /_  -39.7    1.0077    12.470
M1069192 ........... 1       7.3664 /_  -39.3    1.0232    12.470
L3235253 ........... 1       7.3662 /_  -39.3    1.0232    12.470
L3214071 ........... 1       6.9926 /_  -38.5   0.97125    12.470        1-2     12.333 /_   -8.3   0.98903
   -                 2       7.2088 /_ -159.0    1.0013    12.470        2-3      12.57 /_ -127.3     1.008
   -                 3       7.4739 /_   83.2    1.0381    12.470        3-1     12.637 /_  111.3    1.0134
M1125952 ........... 1       6.9851 /_  -38.5   0.97021    12.470        1-2     12.324 /_   -8.3   0.98831
   -                 2       7.2049 /_ -159.1    1.0007    12.470        2-3     12.563 /_ -127.3    1.0075
   -                 3       7.4737 /_   83.2    1.0381    12.470        3-1     12.632 /_  111.3     1.013
M1027101 ........... 2       7.1502 /_ -165.7   0.99315    12.470
L2860480 ........... 2       7.1499 /_ -165.7   0.99311    12.470
L2710517 ........... 1       7.1669 /_  -43.8   0.99547    12.470
M1026646 ........... 1       7.1655 /_  -43.8   0.99526    12.470
M1069662 ........... 2       7.3214 /_ -164.1    1.0169    12.470
L2935547 ........... 2       7.3213 /_ -164.1    1.0169    12.470
M1026931 ........... 1       7.2878 /_  -43.8    1.0123    12.470
L3216336 ........... 1       7.2872 /_  -43.8    1.0122    12.470
L3142049 ........... 1       6.7908 /_  -40.1   0.94323    12.470        1-2     12.098 /_   -9.8   0.97018
   -                 2       7.1155 /_ -161.0   0.98832    12.470        2-3     12.399 /_ -128.3   0.99432
   -                 3       7.4698 /_   82.6    1.0375    12.470        3-1     12.518 /_  109.8    1.0038
M1108493 ........... 1       6.7809 /_  -40.1   0.94185    12.470        1-2     12.087 /_   -9.8   0.96925
   -                 2       7.1109 /_ -161.1   0.98769    12.470        2-3     12.391 /_ -128.4   0.99365
   -                 3       7.4696 /_   82.6    1.0375    12.470        3-1     12.512 /_  109.7    1.0034
M1069169 ........... 1       7.3715 /_  -39.2    1.0239    12.470        1-2     12.813 /_   -9.4    1.0275
   -                 2       7.3954 /_ -159.6    1.0272    12.470        2-3     12.742 /_ -129.1    1.0218
   -                 3       7.3993 /_   81.5    1.0278    12.470        3-1     12.837 /_  111.0    1.0294
L3010556 ........... 1       7.3646 /_  -39.3    1.0229    12.470        1-2     12.801 /_   -9.4    1.0265
   -                 2       7.3868 /_ -159.7     1.026    12.470        2-3     12.733 /_ -129.1    1.0211
   -                 3       7.3988 /_   81.4    1.0277    12.470        3-1     12.831 /_  111.0    1.0289
L2991933 ........... 3       7.3796 /_   80.7     1.025    12.470
L3122837 ........... 3       7.3789 /_   80.7    1.0249    12.470
L2691936 ........... 1       7.2867 /_  -43.8    1.0121    12.470
L2897772 ........... 1       7.2051 /_  -39.7    1.0008    12.470
L3101814 ........... 1       7.2051 /_  -39.7    1.0008    12.470
L2766732 ........... 2       7.2181 /_ -160.5    1.0026    12.470
L2989564 ........... 2       7.3217 /_ -164.1     1.017    12.470
M1126016 ........... 1       6.7431 /_  -40.4   0.93659    12.470
L3120534 ........... 1       6.7427 /_  -40.4   0.93654    12.470
M1026330 ........... 1       7.1466 /_  -39.6   0.99264    12.470        1-2     12.409 /_  -10.2   0.99513
   -                 2       7.1071 /_ -160.7   0.98715    12.470        2-3     12.438 /_ -129.1   0.99745
   -                 3       7.3847 /_   81.1    1.0257    12.470        3-1     12.629 /_  110.2    1.0128
L2766726 ........... 2        7.107 /_ -160.7   0.98715    12.470
P901912 ............ 2       7.4056 /_ -165.0    1.0286    12.470
L3195365 ........... 2       7.4056 /_ -165.0    1.0286    12.470
M1108381 ........... 1        6.845 /_  -39.4   0.95075    12.470        1-2     12.149 /_   -9.2   0.97422
   -                 2       7.1228 /_ -160.3   0.98934    12.470        2-3     12.431 /_ -127.9   0.99688
   -                 3       7.4652 /_   82.9    1.0369    12.470        3-1     12.537 /_  110.4    1.0053
L3254237 ........... 1       6.8437 /_  -39.4   0.95058    12.470        1-2     12.147 /_   -9.2   0.97409
   -                 2        7.122 /_ -160.3   0.98923    12.470        2-3      12.43 /_ -127.9   0.99678
   -                 3       7.4646 /_   82.9    1.0368    12.470        3-1     12.535 /_  110.4    1.0052
L2804262 ........... 1       7.3067 /_  -43.8    1.0149    12.470
L2841639 ........... 1       7.3043 /_  -43.8    1.0146    12.470
N1230123 ........... 2       7.1294 /_ -160.3   0.99025    12.470
L2708744 ........... 2       7.1278 /_ -160.3   0.99003    12.470
M1069519 ........... 1        7.201 /_  -42.1    1.0002    12.470        1-2     12.761 /_  -12.5    1.0234
   -                 2       7.4082 /_ -163.8     1.029    12.470        2-3     12.573 /_ -130.9    1.0083
   -                 3       7.5267 /_   81.5    1.0454    12.470        3-1      12.98 /_  109.0    1.0409
P901927 ............ 2       7.4082 /_ -163.8     1.029    12.470
L2897790 ........... 3        7.531 /_   81.5     1.046    12.470
L2935566 ........... 3       7.5308 /_   81.5     1.046    12.470
L3216337 ........... 1       7.2877 /_  -43.8    1.0122    12.470
P901931 ............ 3       7.5312 /_   81.5    1.0461    12.470
M1069548 ........... 3       7.5312 /_   81.5    1.0461    12.470
M1010013 ........... 1        7.115 /_  -44.2   0.98826    12.470
L3120503 ........... 1        7.115 /_  -44.2   0.98825    12.470
M1089145 ........... 1       7.0116 /_  -38.5    0.9739    12.470        1-2     12.226 /_   -8.5   0.98047
   -                 2       7.0875 /_ -158.8   0.98443    12.470        2-3     12.424 /_ -127.8   0.99635
   -                 3       7.3272 /_   82.2    1.0177    12.470        3-1     12.461 /_  111.1   0.99927
L3215385 ........... 1       7.0116 /_  -38.5   0.97389    12.470        1-2     12.226 /_   -8.5   0.98045
   -                 2       7.0873 /_ -158.8   0.98441    12.470        2-3     12.424 /_ -127.8   0.99634
   -                 3       7.3271 /_   82.2    1.0177    12.470        3-1     12.461 /_  111.1   0.99926
M1026852 ........... 1       7.3014 /_  -43.8    1.0141    12.470        1-2      12.84 /_  -14.4    1.0297
   -                 2       7.4065 /_ -165.4    1.0287    12.470        2-3     12.405 /_ -132.3   0.99477
   -                 3       7.4056 /_   80.8    1.0286    12.470        3-1     13.024 /_  108.3    1.0444
M1069420 ........... 1       7.3087 /_  -43.4    1.0152    12.470        1-2     12.759 /_  -14.5    1.0232
   -                 2       7.2728 /_ -165.5    1.0102    12.470        2-3     12.252 /_ -132.5    0.9825
   -                 3       7.3125 /_   80.2    1.0157    12.470        3-1     12.887 /_  108.4    1.0335
L3157708 ........... 3        7.392 /_   80.9    1.0267    12.470
N1137991 ........... 3       7.3919 /_   80.9    1.0267    12.470
M1108413 ........... 1       6.8498 /_  -39.4   0.95142    12.470
M1108460 ........... 1       6.8473 /_  -39.4   0.95107    12.470
P827532 ............ 1       7.2334 /_  -39.7    1.0047    12.470
M1047326 ........... 1       7.2333 /_  -39.7    1.0047    12.470
E182732 ............ 1       7.2578 /_  -43.6    1.0081    12.470        1-2     12.789 /_  -13.9    1.0256
   -                 2       7.4097 /_ -165.0    1.0292    12.470        2-3     12.365 /_ -132.2   0.99155
   -                 3       7.3229 /_   80.9    1.0171    12.470        3-1     12.904 /_  108.5    1.0348
M1026760 ........... 1       7.2569 /_  -43.6     1.008    12.470        1-2     12.789 /_  -13.9    1.0255
   -                 2       7.4096 /_ -165.0    1.0292    12.470        2-3     12.364 /_ -132.2   0.99151
   -                 3       7.3224 /_   80.9    1.0171    12.470        3-1     12.903 /_  108.5    1.0347
L3048205 ........... 3       7.3437 /_   82.5      1.02    12.470
M1108361 ........... 3       7.3307 /_   82.5    1.0182    12.470
M3036169 ........... 1       7.1701 /_  -43.7   0.99591    12.470
L2673317 ........... 1         7.17 /_  -43.7    0.9959    12.470
L3178981 ........... 2       7.2763 /_ -160.3    1.0107    12.470
M1047368 ........... 2       7.2644 /_ -160.4     1.009    12.470
N1136354 ........... 1       7.1995 /_  -42.1   0.99999    12.470        1-2      12.76 /_  -12.5    1.0233
   -                 2       7.4046 /_ -163.9    1.0285    12.470        2-3      12.57 /_ -130.9     1.008
   -                 3       7.5294 /_   81.5    1.0458    12.470        3-1      12.98 /_  109.0    1.0409
L2879794 ........... 1       7.1455 /_  -37.6    0.9925    12.470
M1142811 ........... 1       7.1452 /_  -37.6   0.99246    12.470
M1069565 ........... 2       7.3679 /_ -164.0    1.0234    12.470
L2785536 ........... 2       7.3677 /_ -164.0    1.0233    12.470
L3104114 ........... 2       7.2842 /_ -165.8    1.0118    12.470
M1009824 ........... 2       7.2811 /_ -165.8    1.0113    12.470
L2745848 ........... 1       7.3251 /_  -43.4    1.0174    12.470        1-2     12.809 /_  -14.3    1.0272
   -                 2       7.3326 /_ -165.3    1.0185    12.470        2-3     12.318 /_ -132.4   0.98785
   -                 3       7.3324 /_   80.5    1.0185    12.470        3-1     12.936 /_  108.5    1.0373
L2673308 ........... 1       7.3241 /_  -43.4    1.0173    12.470        1-2     12.806 /_  -14.3     1.027
   -                 2       7.3293 /_ -165.3     1.018    12.470        2-3     12.315 /_ -132.4   0.98755
   -                 3       7.3314 /_   80.5    1.0183    12.470        3-1     12.933 /_  108.5    1.0371
L2991939 ........... 1       7.3223 /_  -43.4     1.017    12.470        1-2     12.801 /_  -14.4    1.0265
   -                 2        7.323 /_ -165.3    1.0171    12.470        2-3     12.308 /_ -132.4   0.98699
   -                 3       7.3295 /_   80.4     1.018    12.470        3-1     12.928 /_  108.5    1.0367
L2916606 ........... 3       7.3632 /_   82.6    1.0227    12.470
L2822864 ........... 3       7.3631 /_   82.6    1.0227    12.470
M1142851 ........... 1       7.1345 /_  -37.4   0.99096    12.470        1-2     12.505 /_   -7.2    1.0028
   -                 2        7.285 /_ -157.7    1.0119    12.470        2-3     12.697 /_ -126.5    1.0182
   -                 3       7.4817 /_   83.7    1.0392    12.470        3-1     12.732 /_  112.4     1.021
196-31070 .......... 1       7.1325 /_  -37.5   0.99069    12.470        1-2     12.502 /_   -7.2    1.0026
   -                 2        7.284 /_ -157.7    1.0117    12.470        2-3     12.695 /_ -126.6     1.018
   -                 3       7.4816 /_   83.7    1.0392    12.470        3-1      12.73 /_  112.4    1.0209
M1209822 ........... 3       7.4717 /_   86.0    1.0378    12.470
M1209823 ........... 3       7.4685 /_   86.0    1.0374    12.470
M1069550 ........... 2       7.3722 /_ -164.0     1.024    12.470
M1069551 ........... 2       7.3718 /_ -164.0    1.0239    12.470
L3141397 ........... 2        7.182 /_ -165.6   0.99757    12.470
L3649299 ........... 1        7.339 /_  -43.7    1.0194    12.470
M3772794 ........... 1        7.339 /_  -43.7    1.0194    12.470
P895106 ............ 2       7.1752 /_ -159.7   0.99662    12.470
L3048887 ........... 2       7.1748 /_ -159.7   0.99656    12.470
M1047824 ........... 2       7.1563 /_ -165.7   0.99399    12.470
M1047834 ........... 2       7.1519 /_ -165.7   0.99338    12.470
M1069350 ........... 1       7.3058 /_  -43.4    1.0148    12.470        1-2     12.734 /_  -14.6    1.0211
   -                 2       7.2398 /_ -165.6    1.0056    12.470        2-3     12.214 /_ -132.6   0.97944
   -                 3       7.2915 /_   80.1    1.0128    12.470        3-1     12.854 /_  108.4    1.0308
N1144668 ........... 1       7.3061 /_  -43.4    1.0148    12.470        1-2     12.733 /_  -14.6    1.0211
   -                 2       7.2397 /_ -165.6    1.0056    12.470        2-3     12.213 /_ -132.6   0.97942
   -                 3       7.2906 /_   80.1    1.0126    12.470        3-1     12.853 /_  108.4    1.0307
L2879072 ........... 2       7.1952 /_ -165.7   0.99939    12.470
M1047441 ........... 2       7.1808 /_ -165.7    0.9974    12.470
M1108274 ........... 2       7.4531 /_ -159.2    1.0352    12.470
M1108269 ........... 2        7.453 /_ -159.2    1.0352    12.470
L3235244 ........... 1       7.2973 /_  -43.4    1.0136    12.470
M1069398 ........... 1       7.2969 /_  -43.4    1.0135    12.470
N1147862 ........... 1       7.2369 /_  -43.9    1.0052    12.470
L2685805 ........... 1       7.2367 /_  -43.9    1.0052    12.470
M1069247 ........... 1       7.3063 /_  -43.4    1.0148    12.470
M1069248 ........... 1        7.306 /_  -43.4    1.0148    12.470
L2786273 ........... 2       7.4524 /_ -159.2    1.0351    12.470
M1108278 ........... 2       7.4519 /_ -159.2    1.0351    12.470
L3254238 ........... 1       7.1991 /_  -39.7   0.99994    12.470        1-2     12.515 /_  -10.1    1.0036
   -                 2       7.1941 /_ -160.5   0.99924    12.470        2-3     12.519 /_ -129.3    1.0039
   -                 3       7.3765 /_   81.0    1.0246    12.470        3-1      12.67 /_  110.3    1.0161
M1047303 ........... 1       7.1941 /_  -39.7   0.99924    12.470        1-2     12.505 /_  -10.1    1.0028
   -                 2       7.1865 /_ -160.5   0.99819    12.470        2-3     12.511 /_ -129.3    1.0033
   -                 3        7.375 /_   81.0    1.0244    12.470        3-1     12.664 /_  110.3    1.0156
M1047633 ........... 3       7.4292 /_   80.8    1.0319    12.470
L2897554 ........... 3       7.4286 /_   80.8    1.0318    12.470
M1069627 ........... 2         7.32 /_ -164.1    1.0167    12.470
L2897791 ........... 2       7.3185 /_ -164.1    1.0165    12.470
M1089097 ........... 2        7.457 /_ -159.2    1.0358    12.470
M1108270 ........... 2       7.4561 /_ -159.2    1.0356    12.470
N1142101 ........... 1       6.7959 /_  -40.0   0.94393    12.470
L2936214 ........... 1       6.7958 /_  -40.0   0.94392    12.470
L3066810 ........... 3       7.3178 /_   80.3    1.0164    12.470
L2897769 ........... 3       7.3167 /_   80.3    1.0163    12.470
M1209758 ........... 2       7.4299 /_ -155.3     1.032    12.470
M1209753 ........... 2       7.4294 /_ -155.3    1.0319    12.470
M1047528 ........... 1       7.4192 /_  -43.4    1.0305    12.470        1-2     12.995 /_  -14.1    1.0421
   -                 2       7.4645 /_ -165.0    1.0368    12.470        2-3     12.511 /_ -132.1    1.0033
   -                 3       7.4433 /_   80.9    1.0338    12.470        3-1     13.138 /_  108.7    1.0535
L2858166 ........... 1       7.4187 /_  -43.4    1.0304    12.470        1-2     12.994 /_  -14.1     1.042
   -                 2       7.4641 /_ -165.0    1.0367    12.470        2-3      12.51 /_ -132.1    1.0032
   -                 3       7.4431 /_   80.9    1.0338    12.470        3-1     13.137 /_  108.7    1.0535
M1142843 ........... 1       7.1534 /_  -37.3   0.99359    12.470        1-2     12.528 /_   -7.1    1.0047
   -                 2       7.2954 /_ -157.5    1.0133    12.470        2-3     12.714 /_ -126.4    1.0195
   -                 3       7.4832 /_   83.8    1.0394    12.470        3-1     12.745 /_  112.5     1.022
L3081380 ........... 1       7.1531 /_  -37.3   0.99354    12.470        1-2     12.524 /_   -7.1    1.0044
   -                 2       7.2917 /_ -157.6    1.0128    12.470        2-3      12.71 /_ -126.5    1.0192
   -                 3       7.4802 /_   83.7     1.039    12.470        3-1      12.74 /_  112.5    1.0217
L2804272 ........... 2       7.3714 /_ -164.0    1.0239    12.470
L2841641 ........... 2       7.3713 /_ -164.0    1.0239    12.470
M1069393 ........... 2       7.2193 /_ -165.6    1.0027    12.470
M1069408 ........... 2       7.2142 /_ -165.6     1.002    12.470
N1142104 ........... 1       6.7666 /_  -40.3   0.93987    12.470        1-2      12.07 /_   -9.9    0.9679
   -                 2       7.1044 /_ -161.2   0.98678    12.470        2-3     12.379 /_ -128.4   0.99267
   -                 3       7.4693 /_   82.5    1.0375    12.470        3-1     12.504 /_  109.6    1.0027
M1108500 ........... 1       6.7613 /_  -40.3   0.93913    12.470        1-2     12.064 /_  -10.0   0.96741
   -                 2        7.102 /_ -161.3   0.98645    12.470        2-3     12.374 /_ -128.5   0.99231
   -                 3       7.4692 /_   82.5    1.0374    12.470        3-1       12.5 /_  109.5    1.0024
L3216348 ........... 1       7.1381 /_  -43.8   0.99146    12.470
L2841627 ........... 1       7.1364 /_  -43.8   0.99123    12.470
L2916599 ........... 1       7.2925 /_  -43.8    1.0129    12.470
M1047447 ........... 2       7.1655 /_ -165.7   0.99527    12.470
L2954349 ........... 2       7.1654 /_ -165.7   0.99525    12.470
L3235246 ........... 2       7.1562 /_ -165.7   0.99398    12.470
M1125911 ........... 2         7.25 /_ -158.0     1.007    12.470
L2711224 ........... 2       7.2487 /_ -158.0    1.0068    12.470
N1147863 ........... 3       7.3895 /_   80.7    1.0264    12.470
L3122817 ........... 3       7.3895 /_   80.7    1.0264    12.470
M1186061 ........... 1       7.3449 /_  -35.3    1.0202    12.470        1-2     12.797 /_   -5.1    1.0262
   -                 2       7.4316 /_ -155.3    1.0322    12.470        2-3     12.911 /_ -124.8    1.0354
   -                 3       7.5233 /_   85.3     1.045    12.470        3-1     12.916 /_  114.6    1.0358
L2861223 ........... 2       7.4315 /_ -155.3    1.0322    12.470
M1069130 ........... 1       7.2827 /_  -39.7    1.0116    12.470
L3085396 ........... 1       7.2824 /_  -39.7    1.0115    12.470
E182730 ............ 1       7.2681 /_  -43.6    1.0095    12.470
N1142109 ........... 1        7.268 /_  -43.6    1.0095    12.470
M1069417 ........... 1       7.3046 /_  -43.4    1.0146    12.470        1-2     12.745 /_  -14.6    1.0221
   -                 2       7.2557 /_ -165.5    1.0078    12.470        2-3     12.233 /_ -132.6   0.98099
   -                 3        7.307 /_   80.2    1.0149    12.470        3-1     12.874 /_  108.4    1.0324
N1138597 ........... 1       7.3043 /_  -43.4    1.0145    12.470        1-2     12.744 /_  -14.6     1.022
   -                 2       7.2543 /_ -165.5    1.0076    12.470        2-3     12.231 /_ -132.6   0.98086
   -                 3       7.3065 /_   80.2    1.0149    12.470        3-1     12.873 /_  108.4    1.0323
M1026987 ........... 2       7.1753 /_ -165.6   0.99663    12.470
M1026990 ........... 2       7.1738 /_ -165.6   0.99642    12.470
M1142832 ........... 1       7.1523 /_  -37.4   0.99343    12.470        1-2     12.517 /_   -7.2    1.0037
   -                 2       7.2839 /_ -157.6    1.0117    12.470        2-3     12.702 /_ -126.6    1.0186
   -                 3        7.474 /_   83.6    1.0381    12.470        3-1     12.731 /_  112.4    1.0209
L3160865 ........... 1       7.1519 /_  -37.4   0.99338    12.470        1-2     12.514 /_   -7.3    1.0036
   -                 2       7.2817 /_ -157.7    1.0114    12.470        2-3     12.699 /_ -126.6    1.0184
   -                 3       7.4725 /_   83.5    1.0379    12.470        3-1     12.728 /_  112.3    1.0207
L2673323 ........... 3       7.3792 /_   80.7     1.025    12.470
M1009809 ........... 3        7.379 /_   80.7    1.0249    12.470
L2822869 ........... 1       7.3298 /_  -43.5    1.0181    12.470        1-2     12.867 /_  -14.0    1.0318
   -                 2       7.4159 /_ -165.0      1.03    12.470        2-3     12.407 /_ -132.2   0.99495
   -                 3       7.3649 /_   80.9     1.023    12.470        3-1     12.994 /_  108.6     1.042
M1026808 ........... 1       7.3203 /_  -43.5    1.0168    12.470        1-2     12.857 /_  -14.0     1.031
   -                 2        7.415 /_ -165.0    1.0299    12.470        2-3     12.401 /_ -132.2   0.99447
   -                 3       7.3588 /_   80.9    1.0221    12.470        3-1     12.982 /_  108.6     1.041
M1047825 ........... 2       7.1421 /_ -165.7   0.99201    12.470
M1069731 ........... 2       7.1405 /_ -165.7   0.99179    12.470
N1140520 ........... 3       7.3588 /_   80.9    1.0221    12.470
L2729410 ........... 3       7.3587 /_   80.9    1.0221    12.470
L3178978 ........... 1       7.1607 /_  -43.8    0.9946    12.470
M1069384 ........... 1       7.2987 /_  -43.4    1.0138    12.470
L3066805 ........... 1       7.2986 /_  -43.4    1.0138    12.470
M4362181 ........... 2       7.1469 /_ -165.8   0.99269    12.470
M1047319 ........... 3       7.3698 /_   81.0    1.0236    12.470
M1047318 ........... 3       7.3694 /_   81.0    1.0236    12.470
L3216358 ........... 1         7.28 /_  -43.9    1.0112    12.470
M1026826 ........... 1       7.2787 /_  -43.9     1.011    12.470
M1108276 ........... 2       7.4527 /_ -159.2    1.0352    12.470
M1089198 ........... 1       7.3033 /_  -41.4    1.0144    12.470        1-2     12.878 /_  -11.6    1.0327
   -                 2       7.4708 /_ -162.7    1.0377    12.470        2-3     12.669 /_ -130.3     1.016
   -                 3       7.5168 /_   81.9    1.0441    12.470        3-1     13.043 /_  109.8    1.0459
M1089201 ........... 1       7.2865 /_  -41.5    1.0121    12.470        1-2     12.858 /_  -11.8    1.0311
   -                 2       7.4612 /_ -162.8    1.0363    12.470        2-3     12.654 /_ -130.4    1.0147
   -                 3       7.5174 /_   81.9    1.0441    12.470        3-1     13.032 /_  109.7    1.0451
M1047763 ........... 1       7.3196 /_  -43.1    1.0167    12.470        1-2     12.738 /_  -14.6    1.0215
   -                 2       7.2147 /_ -165.6    1.0021    12.470        2-3     12.289 /_ -131.7   0.98547
   -                 3       7.4681 /_   80.8    1.0373    12.470        3-1     13.054 /_  108.5    1.0468
N1136027 ........... 1       7.3193 /_  -43.1    1.0166    12.470
L3101827 ........... 3       7.5122 /_   82.3    1.0434    12.470
M1108540 ........... 3       7.5092 /_   82.3     1.043    12.470
M1026335 ........... 1       7.1475 /_  -39.6   0.99277    12.470
L2804259 ........... 1       7.1474 /_  -39.6   0.99275    12.470
N1136357 ........... 3       7.5311 /_   81.5    1.0461    12.470
M1047513 ........... 1       7.3674 /_  -43.4    1.0233    12.470        1-2     12.914 /_  -14.1    1.0356
   -                 2       7.4277 /_ -165.0    1.0317    12.470        2-3      12.44 /_ -132.2   0.99759
   -                 3        7.392 /_   80.9    1.0267    12.470        3-1     13.048 /_  108.7    1.0463
M1047507 ........... 1       7.3538 /_  -43.4    1.0214    12.470        1-2     12.893 /_  -14.1    1.0339
   -                 2       7.4178 /_ -165.0    1.0303    12.470        2-3     12.422 /_ -132.2   0.99615
   -                 3       7.3803 /_   80.9    1.0251    12.470        3-1     13.026 /_  108.7    1.0446
M1142863 ........... 1       7.1139 /_  -37.6    0.9881    12.470        1-2      12.48 /_   -7.4    1.0008
   -                 2       7.2737 /_ -157.9    1.0103    12.470        2-3     12.678 /_ -126.7    1.0167
   -                 3         7.48 /_   83.6     1.039    12.470        3-1     12.717 /_  112.2    1.0198
N1141480 ........... 3         7.48 /_   83.6     1.039    12.470
M1125916 ........... 2       7.2514 /_ -158.0    1.0072    12.470
...